[TITLE]
;;Project Title/Notes
Scenario Run :  LID_USAGE

[OPTIONS]
;;Option             Value
FLOW_UNITS           CFS
INFILTRATION         GREEN_AMPT
FLOW_ROUTING         DYNWAVE
LINK_OFFSETS         DEPTH
MIN_SLOPE            0
ALLOW_PONDING        NO
SKIP_STEADY_STATE    NO

IGNORE_QUALITY       YES
START_DATE           01/01/1997
START_TIME           00:00:00
REPORT_START_DATE    01/01/1997
REPORT_START_TIME    00:00:00
END_DATE             01/02/1997
END_TIME             02:00:00
SWEEP_START          01/01
SWEEP_END            12/31
DRY_DAYS             5.000000
REPORT_STEP          00:05:00
WET_STEP             00:01:00
DRY_STEP             00:01:00
ROUTING_STEP         0:01:00 
RULE_STEP            00:00:00

INERTIAL_DAMPING     NONE
NORMAL_FLOW_LIMITED  BOTH
FORCE_MAIN_EQUATION  H-W
VARIABLE_STEP        0.75
LENGTHENING_STEP     10
MIN_SURFAREA         12.566
MAX_TRIALS           8
HEAD_TOLERANCE       0.000100
SYS_FLOW_TOL         5
LAT_FLOW_TOL         5
MINIMUM_STEP         0
THREADS              1

[FILES]
;;Interfacing Files
SAVE HOTSTART "C:\Users\dickinre\Desktop\greenville.rff.hsf"
SAVE RAINFALL "C:\Users\dickinre\Desktop\greenville.rff"

[EVAPORATION]
;;Data Source    Parameters
;;-------------- ----------------
CONSTANT         0.100000
DRY_ONLY         NO

[TEMPERATURE]
;;Data Element     Values     
TIMESERIES         MyTemperature
WINDSPEED MONTHLY  0.0 0.0 0.0 0.0 0.0 0.0 0.0 0.0 0.0 0.0 0.0 0.0
SNOWMELT           34 0.5 0.6 0.0 50.0 0.0
ADC IMPERVIOUS     1.0 1.0 1.0 1.0 1.0 1.0 1.0 1.0 1.0 1.0
ADC PERVIOUS       1.0 1.0 1.0 1.0 1.0 1.0 1.0 1.0 1.0 1.0

[RAINGAGES]
;;Name           Format    Interval SCF      Source    
;;-------------- --------- ------ ------ ----------
;  July rainfall event
RAINGAGE-13      VOLUME    0:15     1.000000 TIMESERIES 50-YEAR         

[SUBCATCHMENTS]
;;Name           Rain Gage        Outlet           Area     %Imperv  Width    %Slope   CurbLen  SnowPack        
;;-------------- ---------------- ---------------- -------- -------- -------- -------- -------- ----------------
HasSnow          RAINGAGE-13      201              14.354926 23.000000 1300.152766 0.200000 0.000000 SnowGreenville  
NoSnow           RAINGAGE-13      200              12.647283 25.000000 1220.372776 1.200000 0.000000 NoSnow          

[SUBAREAS]
;;Subcatchment   N-Imperv   N-Perv     S-Imperv   S-Perv     PctZero    RouteTo    PctRouted 
;;-------------- ---------- ---------- ---------- ---------- ---------- ---------- ----------
HasSnow          0.020000   0.280000   0.100000   0.240000   25.000000  OUTLET    
NoSnow           0.020000   0.250000   0.100000   0.220000   25.000000  OUTLET    

[INFILTRATION]
;;Subcatchment   Param1     Param2     Param3     Param4     Param5    
;;-------------- ---------- ---------- ---------- ---------- ----------
HasSnow          5.000000   1.000000   0.250000   7          0         
NoSnow           5.000000   1.000000   0.250000   7          0         

[LID_CONTROLS]
;;Name           Type/Layer Parameters
;;-------------- ---------- ----------
TRENCH           IT
TRENCH           SURFACE    3.937008   0.100000   0.013000   1.000000   0.000000  
TRENCH           STORAGE    39.370079  0.330000   30.000000  0.000000  
TRENCH           DRAIN      1.000000   1.000000   1.000000   1.000000   0          0                    

BIOCELL          BC
BIOCELL          SURFACE    3.937008   0.100000   0.013000   1.000000   0.000000  
BIOCELL          SOIL       39.370079  0.330000   0.250000   0.150000   20.000000  1.000000   5.000000  
BIOCELL          STORAGE    39.370079  0.330000   30.000000  0.000000  
BIOCELL          DRAIN      1.000000   1.000000   6.000000   1.000000   0          0                    

RAINB            RB
RAINB            STORAGE    48.000000  0.250000   30.000000  0.000000  
RAINB            DRAIN      1.000000   1.000000   6.000000   1.000000   0          0                    

VEGSWALE         VS
VEGSWALE         SURFACE    3.937008   0.330000   0.013000   1.000000   1.000000  

GREENROOF        GR
GREENROOF        SURFACE    39.370079  0.100000   0.013000   1.000000   0.000000  
GREENROOF        SOIL       19.685039  0.400000   0.300000   0.120000   30.000000  5.000000   5.000000  
GREENROOF        DRAINMAT   5.000000   0.500000   0.020000  

PAVEMENT         PP
PAVEMENT         SURFACE    8.000000   0.330000   0.013000   1.000000   1.000000  
PAVEMENT         PAVEMENT   0.393701   0.150000   0.150000   80.000000  0.000000   0          0         
PAVEMENT         STORAGE    39.370079  0.330000   70.000000  0.000000  
PAVEMENT         DRAIN      0.000000   1.000000   0.001550   1.000000   0          0                    

RG               RG
RG               SURFACE    3.000000   0.100000   0.100000   1.000000   5.000000  
RG               SOIL       3.000000   0.500000   0.200000   0.100000   0.500000   10.000000  3.500000  
RG               STORAGE    0.000000   0.750000   1.000000   0.000000  

[LID_USAGE]
;;Subcatchment   LID Process      Number  Area       Width      InitSat    FromImp    ToPerv     RptFile                  DrainTo          FromPerv  
;;-------------- ---------------- ------- ---------- ---------- ---------- ---------- ---------- ------------------------ ---------------- ----------
HasSnow          GREENROOF        1       31265.029863 55.000000  0.000000   5.000000   1          *                        *                0               
HasSnow          PAVEMENT         1       31265.029863 55.000000  0.000000   5.000000   1          *                        *                0               
HasSnow          TRENCH           1       31265.029863 55.000000  0.000000   5.000000   1          *                        *                0               
HasSnow          BIOCELL          1       31265.029863 55.000000  0.000000   5.000000   1          *                        *                0               
HasSnow          RAINB            1       31265.029863 55.000000  0.000000   5.000000   1          *                        *                0               
HasSnow          RG               1       31265.029863 55.000000  0.000000   5.000000   1          *                        *                0               
NoSnow           VEGSWALE         1       27545.781686 55.000000  0.000000   5.000000   1          *                        *                0               
NoSnow           GREENROOF        1       27545.781686 55.000000  0.000000   5.000000   1          *                        *                0               
NoSnow           PAVEMENT         1       27545.781686 55.000000  0.000000   5.000000   1          *                        *                0               
NoSnow           TRENCH           1       27545.781686 55.000000  0.000000   5.000000   1          *                        *                0               
NoSnow           BIOCELL          1       27545.781686 55.000000  0.000000   5.000000   1          *                        *                0               
NoSnow           RG               1       27545.781686 55.000000  0.000000   5.000000   1          *                        *                0               

[AQUIFERS]
;;Name           Por    WP     FC     Ksat   Kslope Tslope ETu    ETs    Seep   Ebot   Egw    Umc    ETupat 
;;-------------- ------ ------ ------ ------ ------ ------ ------ ------ ------ ------ ------ ------ ------
AQUIFER-1        0.400000 0.150000 0.300000 5.000000 5.000000 5.000000 0.500000 10.000000 0.020000 0.000000 2.000000 0.250000 SEASONAL
AQUIFER-2        0.400000 0.150000 0.300000 5.000000 5.000000 5.000000 0.500000 10.000000 0.020000 0.000000 2.000000 0.250000 SEASONAL

[GROUNDWATER]
;;Subcatchment   Aquifer          Node             Esurf  A1     B1     A2     B2     A3     Dsw    Egwt   Ebot   Wgr    Umc   
;;-------------- ---------------- ---------------- ------ ------ ------ ------ ------ ------ ------ ------ ------ ------ ------
HasSnow          AQUIFER-1        201              10.000000 0.001000 1.000000 0.000000 1.000000 0.000000 0.000000 1.000000 0.000000 2.000000 0.250000
NoSnow           AQUIFER-1        200              10.000000 0.001000 1.000000 0.000000 1.000000 0.000000 0.000000 1.000000 0.000000 2.000000 0.250000

[SNOWPACKS]
;;Name           Surface    Parameters
;;-------------- ---------- ----------
SnowGreenville   PLOWABLE   0.001      0.001      33         0.10       0.00       0.00       0.0       
SnowGreenville   IMPERVIOUS 0.001      0.001      33         0.10       6          1          24        
SnowGreenville   PERVIOUS   0.001      0.001      33         0.10       3          1          12        
SnowGreenville   REMOVAL    1.0        0.0        0.0        0.0        0.0        0.0        
NoSnow           PLOWABLE   0.001      0.001      32.0       0.10       0.00       0.00       0.0       
NoSnow           IMPERVIOUS 0.001      0.001      32.0       0.10       0.00       0.00       0.00      
NoSnow           PERVIOUS   0.001      0.001      32.0       0.10       0.00       0.00       0.00      
NoSnow           REMOVAL    1.0        0.0        0.0        0.0        0.0        0.0        

[JUNCTIONS]
;;Name           Elevation  MaxDepth   InitDepth  SurDepth   Aponded   
;;-------------- ---------- ---------- ---------- ---------- ----------
200              689.114022 6.000137   0.000000   0.000000   0.000000  
201              693.878022 8.773969   0.000000   0.000000   0.000000  
882              692.479022 8.260462   0.000000   0.000000   0.000000  
956              694.370022 6.600046   0.000000   0.000000   0.000000  

[OUTFALLS]
;;Name           Elevation  Type       Stage Data       Gated    Route To        
;;-------------- ---------- ---------- ---------------- -------- ----------------
VIADUCT2         692.000022 FREE                        NO                       

[CONDUITS]
;;Name           From Node        To Node          Length     Roughness  InOffset   OutOffset  InitFlow   MaxFlow   
;;-------------- ---------------- ---------------- ---------- ---------- ---------- ---------- ---------- ----------
1209             201              882              229.139597 0.015000   0.000000   0.000000   0.000000   0.000000  
1269             200              956              430.505964 0.015000   0.000000   0.000000   0.000000   0.000000  
201OF            201              956              450.000014 0.035000   0.000000   0.000000   0.000000   0.000000  
882OF            882              200              559.166575 0.040000   0.000000   0.000000   0.000000   0.000000  
9562OF           956              VIADUCT2         350.000011 0.040000   0.000000   0.000000   0.000000   0.000000  

[XSECTIONS]
;;Link           Shape        Geom1            Geom2      Geom3      Geom4      Barrels    Culvert   
;;-------------- ------------ ---------------- ---------- ---------- ---------- ---------- ----------
1209             PARABOLIC    1.500000         1          0          0          1          0         
1269             CATENARY     1.000000         0          0          0          1          0         
201OF            TRAPEZOIDAL  2.000000         50.000002  4.000000   4.000000   1          0         
882OF            TRAPEZOIDAL  2.000000         50.000002  4.000000   4.000000   1          0         
9562OF           TRAPEZOIDAL  2.000000         50.000002  4.000000   4.000000   1          0         

[TRANSECTS]
;;Transect Data in HEC-2 format
;
NC 0.070000 0.070000 0.035000
X1 1                 26       100.000000 200.000000 0.0      0.0      0.000000 0.000000 0.000000
GR 672.591022 4.580918 672.225022 9.734450 672.128022 14.887983 672.093022 19.468901 672.044022 24.622434
GR 672.033022 29.775966 672.069022 49.817483 671.980022 54.398400 671.839021 59.551933 671.672021 64.705465
GR 671.621021 69.858998 671.667021 74.439915 671.709021 79.593449 671.747021 84.746981 671.782021 89.900514
GR 671.789021 94.481432 671.788021 99.634964 671.527021 104.788496 670.955021 109.369415 670.123021 114.522948
GR 670.545021 119.676480 669.820021 124.830013 668.673021 129.410930 668.143021 134.564463 668.252021 279.435992
GR 668.840021 284.589524
;
NC 0.070000 0.070000 0.035000
X1 2                 6        995.000000 1080.000000 0.0      0.0      0.000000 0.000000 0.000000
GR 675.000022 895.000029 665.000021 995.000032 662.000021 1000.000032 662.000021 1075.000034 665.000021 1080.000035
GR 670.000021 1380.000044
;
NC 0.070000 0.070000 0.035000
X1 3                 6        995.000000 1080.000000 0.0      0.0      0.000000 0.000000 0.000000
GR 675.000022 895.000029 665.000021 995.000032 662.000021 1000.000032 662.000021 1075.000034 665.000021 1080.000035
GR 670.000021 1380.000044
;
NC 0.070000 0.070000 0.035000
X1 4                 6        995.000000 1075.000000 0.0      0.0      0.000000 0.000000 0.000000
GR 675.000022 895.000029 665.000021 995.000032 662.000021 1000.000032 662.000021 1075.000034 665.000021 1080.000035
GR 670.000021 1380.000044
;
NC 0.070000 0.070000 0.035000
X1 5                 6        995.000000 1080.000000 0.0      0.0      0.000000 0.000000 0.000000
GR 675.000022 895.000029 665.000021 995.000032 662.000021 1000.000032 662.000021 1075.000034 665.000021 1080.000035
GR 670.000021 1380.000044
;
NC 0.070000 0.070000 0.035000
X1 RCV-1             47       75.000000 150.000000 0.0      0.0      0.000000 0.000000 0.000000
GR 676.737022 2.902042 676.736022 4.974929 676.742022 7.876972 676.741022 13.266478 676.775022 18.655986
GR 676.853022 24.045493 676.869022 29.435000 676.786022 32.751620 676.835022 34.824507 676.868022 40.214014
GR 676.789022 45.603520 676.820022 46.432675 676.817022 50.993028 676.918022 56.382535 676.927022 60.528310
GR 676.956022 61.772042 676.539022 67.161549 675.229022 72.551056 675.667022 74.209365 673.495022 77.940563
GR 671.326021 82.915493 671.337021 101.986056 671.326021 104.473520 671.362021 115.667112 671.484021 120.642042
GR 672.333022 126.031549 672.828022 129.762746 672.573022 131.421056 671.401021 136.810562 671.326021 142.200070
GR 673.103022 143.443803 675.490022 147.589577 677.521022 152.979084 678.456022 157.539436 678.537022 157.954013
GR 678.670022 163.343520 678.797022 168.733027 678.846022 171.220492 678.905022 174.122535 678.914022 179.512042
GR 679.052022 184.901549 679.200022 185.316126 679.259022 190.291055 679.333022 195.680562 679.441022 198.997182
GR 679.498022 201.070069 679.589022 206.459577
;
NC 0.070000 0.070000 0.035000
X1 RCV-2             30       15.000000 150.000005 0.0      0.0      0.000000 0.000000 0.000000
GR 671.293021 3.829030 671.642021 4.977739 672.129022 11.104187 670.348021 13.401605 670.310021 16.847733
GR 670.346021 22.591278 669.371021 22.974181 668.765021 28.717726 668.488021 32.163853 669.411021 116.785420
GR 670.256021 117.551226 672.423022 122.911868 672.826022 127.123801 674.353022 128.655413 674.490022 134.781861
GR 674.665022 136.313473 674.958022 140.525406 675.133022 145.886049 675.205022 146.268952 675.279022 152.395400
GR 675.299022 155.458624 675.323022 158.138945 675.353022 163.882490 675.449022 165.031199 675.666022 170.008938
GR 675.655022 174.220872 675.761022 175.752484 675.747022 181.878932 675.720022 183.793447 675.752022 187.622477
;
NC 0.070000 0.070000 0.035000
X1 RCV-3             44       50.000000 300.000000 0.0      0.0      0.000000 0.000000 0.000000
GR 673.968020 4.046772 674.031022 8.902897 673.842023 14.568376 673.767023 19.424499 673.588020 24.280624
GR 673.672023 29.136750 673.451022 30.755457 673.337023 33.992875 673.407023 38.849001 672.742023 44.514480
GR 671.475021 49.370605 671.166022 54.226731 670.562023 59.082853 670.055021 63.938978 669.337023 69.604458
GR 668.539021 74.460583 668.143020 79.316709 669.002023 274.371062 670.232023 279.227187 670.406022 284.083313
GR 671.064021 289.748792 671.177023 294.604918 671.758020 299.461043 672.639021 304.317169 673.028020 309.173291
GR 673.071022 314.838770 673.263020 319.694895 673.328020 324.551021 673.471022 329.407146 673.470022 334.263272
GR 673.472023 339.119397 673.464021 344.784877 673.454021 349.641002 673.444021 354.497124 673.433020 359.353250
GR 673.423020 364.209375 673.231022 369.874854 673.213020 374.730980 673.533020 376.349687 673.529021 379.587105
GR 673.449021 384.443231 673.443020 389.299356 673.391022 394.964835 673.385022 399.820958
;
NC 0.070000 0.070000 0.035000
X1 RCV-4             25       15.000000 150.000000 0.0      0.0      0.000000 0.000000 0.000000
GR 669.872023 4.293150 669.524021 9.874242 668.976022 10.732871 667.438020 15.455335 666.710021 20.607114
GR 666.712023 23.612317 666.367023 26.188206 666.954021 145.537731 669.002023 151.118824 668.635021 151.977452
GR 669.422023 156.270602 669.517023 161.851695 670.029021 164.856898 669.656022 167.432788 668.993020 172.584566
GR 669.573020 177.736344 669.442023 178.165659 669.331022 183.746751 669.220021 188.898530 669.550021 190.615790
GR 669.168020 194.479622 669.001022 199.631401 669.399021 203.495233 669.324021 205.212493 669.507023 210.793586
;
NC 0.070000 0.070000 0.035000
X1 RCV-5             39       50.000002 150.000005 0.0      0.0      0.000000 0.000000 0.000000
GR 670.484021 5.064675 669.424021 6.752900 669.771021 10.973462 668.742021 16.460194 668.810021 16.882250
GR 668.533021 22.791038 668.135021 25.745431 667.837021 28.699825 667.068021 34.186556 667.378021 35.452725
GR 667.210021 40.095343 667.688021 45.160018 668.326021 46.004130 667.929021 51.912919 668.589021 54.867312
GR 666.859021 57.821706 666.367021 63.730493 667.279021 133.791830 667.497021 139.700617 668.814021 140.966787
GR 669.283021 145.609406 669.299021 150.674080 669.411021 151.518193 669.499021 157.426980 669.412021 160.381374
GR 669.387021 163.335768 669.440021 169.244555 669.472021 170.088667 669.564021 174.731287 669.625021 179.373905
GR 669.684021 180.640074 669.803021 186.548861 669.851021 189.081199 669.925021 192.457649 669.974021 198.366436
GR 670.107021 198.788492 670.129021 204.275224 670.223021 208.495787 670.329021 210.184011
;
NC 0.070000 0.070000 0.035000
X1 RCV-6             106      200.000000 400.000000 0.0      0.0      0.000000 0.000000 0.000000
GR 674.982022 2.260141 674.981022 12.430778 674.985022 16.951062 674.984022 18.081133 674.982022 23.731486
GR 674.638022 28.251769 674.651022 31.641982 674.209022 33.902123 674.051022 39.552477 673.869022 44.072760
GR 673.633022 46.332901 673.045022 49.723114 672.655022 55.373468 672.178022 59.893751 672.134022 61.023822
GR 671.338021 65.544105 671.090021 71.194458 670.947021 75.714741 670.465021 76.844812 669.861021 81.365096
GR 669.608021 87.015450 669.611021 90.405662 669.586021 92.665803 669.568021 97.186086 669.494021 102.836440
GR 669.518021 105.096581 669.537021 108.486794 669.546021 114.137148 669.525021 118.657431 669.569021 119.787502
GR 669.456021 124.307785 669.276021 129.958139 669.127021 134.478421 669.029021 140.128775 668.973021 145.779130
GR 669.038021 149.169342 668.904021 150.299413 668.701021 155.949766 668.507021 161.600120 668.467021 163.860262
GR 668.398021 167.250474 668.462021 171.770757 668.564021 177.421111 668.290021 178.551182 668.316021 183.071465
GR 668.069021 187.591748 666.771021 193.242102 666.249021 198.892455 665.817021 203.412739 665.715021 207.933022
GR 665.488021 209.063093 665.368021 214.713447 665.360021 220.363800 665.390021 342.411444 665.704021 346.931727
GR 665.854021 352.582080 665.855021 355.972293 666.067021 358.232434 666.290021 363.882789 666.401021 368.403072
GR 666.398021 370.663213 666.610021 374.053425 667.015021 379.703779 667.482021 384.224062 667.314021 385.354133
GR 667.507021 389.874416 667.579021 395.524770 667.658021 400.045053 667.780021 405.695407 668.064021 411.345761
GR 668.098021 414.735973 668.145021 416.996114 668.229021 421.516397 668.288021 427.166752 668.280021 429.426893
GR 668.320021 432.817106 668.360021 437.337388 668.424021 442.987742 668.422021 444.117813 668.498021 448.638096
GR 668.578021 454.288450 668.633021 458.808733 668.639021 464.459087 668.617021 470.109441 668.592021 473.499653
GR 668.583021 474.629724 668.568021 480.280077 668.552021 485.930432 668.557021 488.190574 668.562021 490.450715
GR 668.574021 496.101069 668.605021 501.751422 668.603021 502.881493 668.678021 507.401776 668.745021 511.922059
GR 668.826021 517.572414 668.915021 523.222767 668.975021 527.743050 669.016021 532.263333 669.050021 533.393404
GR 669.057021 539.043758 669.080021 543.564041 669.125021 549.214395 669.190021 554.864749 669.272021 560.515103
GR 669.245021 562.775244

[LOSSES]
;;Link           Kentry     Kexit      Kavg       Flap Gate  Seepage   
;;-------------- ---------- ---------- ---------- ---------- ----------
1209             0.000000   0.000000   0.000000   NO         0.0       
1269             0.000000   0.000000   0.000000   NO         0.0       
201OF            0.000000   0.000000   0.000000   NO         0.0       
882OF            0.000000   0.000000   0.000000   NO         0.0       
9562OF           0.000000   0.000000   0.000000   NO         0.0       

[POLLUTANTS]
;;Name           Units  Crain      Cgw        Crdii      Kdecay     SnowOnly   Co-Pollutant     Co-Frac    Cdwf       Cinit     
;;-------------- ------ ---------- ---------- ---------- ---------- ---------- ---------------- ---------- ---------- ----------
TN               MG/L   1.000000   0.260000   0.100000   0.000000   NO         *                0.000000   5.000000   0.000000  
TSS              MG/L   1.000000   0.260000   1.000000   0.000000   NO         *                0.000000   25.000000  0.000000  
TP               MG/L   1.000000   0.260000   0.100000   0.000000   NO         *                0.000000   5.000000   0.000000  
NH3              MG/L   1.000000   0.260000   1.000000   0.000000   NO         *                0.000000   25.000000  0.000000  
Copper           UG/L   .01        0.260000   0.100000   0.000000   NO         *                0.000000   5.000000   0.000000  
Ecoli            #/L    100        0.260000   1.000000   0.000000   NO         *                0.000000   25.000000  0.000000  

[LANDUSES]
;;               Sweeping   Fraction   Last      
;;Name           Interval   Available  Swept     
;;-------------- ---------- ---------- ----------
GREENVILLEURBAN  0.000000   0.000000   0.000000  
GREENVILEMixed   0.000000   0.000000   0.000000  

[COVERAGES]
;;Subcatchment   Land Use         Percent   
;;-------------- ---------------- ----------
HasSnow          GREENVILLEURBAN  50        
HasSnow          GREENVILEMixed   50        
NoSnow           GREENVILLEURBAN  100       

[LOADINGS]
;;Subcatchment   Pollutant        Buildup   
;;-------------- ---------------- ----------

[BUILDUP]
;;Land Use       Pollutant        Function   Coeff1     Coeff2     Coeff3     Per Unit  
;;-------------- ---------------- ---------- ---------- ---------- ---------- ----------
GREENVILLEURBAN  TN               NONE       0.0        0.0        0.0        AREA      
GREENVILLEURBAN  TSS              NONE       0.0        0.0        0.0        AREA      
GREENVILLEURBAN  TP               NONE       0.0        0.0        0.0        AREA      
GREENVILLEURBAN  NH3              NONE       0.0        0.0        0.0        AREA      
GREENVILLEURBAN  Copper           NONE       0.0        0.0        0.0        AREA      
GREENVILLEURBAN  Ecoli            NONE       0.0        0.0        0.0        AREA      
GREENVILEMixed   TN               NONE       0.0        0.0        0.0        AREA      
GREENVILEMixed   TSS              NONE       0.0        0.0        0.0        AREA      
GREENVILEMixed   TP               NONE       0.0        0.0        0.0        AREA      
GREENVILEMixed   NH3              NONE       0.0        0.0        0.0        AREA      
GREENVILEMixed   Copper           NONE       0.0        0.0        0.0        AREA      
GREENVILEMixed   Ecoli            NONE       0.0        0.0        0.0        AREA      

[WASHOFF]
;;Land Use       Pollutant        Function   Coeff1     Coeff2     SweepRmvl  BmpRmvl   
;;-------------- ---------------- ---------- ---------- ---------- ---------- ----------
GREENVILLEURBAN  TN               NONE       0.200000   0.300000   50.000000  20.000000 
GREENVILLEURBAN  TSS              NONE       0.200000   0.300000   50.000000  20.000000 
GREENVILLEURBAN  TP               NONE       0.200000   0.300000   50.000000  20.000000 
GREENVILLEURBAN  NH3              NONE       0.200000   0.300000   50.000000  20.000000 
GREENVILLEURBAN  Copper           NONE       0.200000   0.300000   50.000000  20.000000 
GREENVILLEURBAN  Ecoli            NONE       0.200000   0.300000   50.000000  20.000000 
GREENVILEMixed   TN               EMC        0.200000   0.300000   50.000000  20.000000 
GREENVILEMixed   TSS              NONE       0.200000   0.300000   50.000000  20.000000 
GREENVILEMixed   TP               NONE       0.200000   0.300000   50.000000  20.000000 
GREENVILEMixed   NH3              NONE       0.200000   0.300000   50.000000  20.000000 
GREENVILEMixed   Copper           NONE       0.200000   0.300000   50.000000  20.000000 
GREENVILEMixed   Ecoli            RC         0.200000   0.300000   50.000000  20.000000 

[DWF]
;;Node           Constituent      Baseline   Patterns  
;;-------------- ---------------- ---------- ----------
200              FLOW             0.087743   "RESIDENTIAL" "SEASONAL"
201              FLOW             0.014420   "RESIDENTIAL" "SEASONAL"
882              FLOW             0.038835   "RESIDENTIAL" "SEASONAL"
956              FLOW             0.193651   "INDUSTRIAL" "WEEKDAY"

[HYDROGRAPHS]
;;Hydrograph     Rain Gage/Month  Response R        T        K        Dmax     Drecov   Dinit   
;;-------------- ---------------- -------- -------- -------- -------- -------- -------- --------
CALB_HYD         RAINGAGE-13     
CALB_HYD         All              Short    0.015000 1.249000 1.977000 0.000000 0.000000 0.000000
CALB_HYD         All              Medium   0.009000 2.194000 4.296000 0.000000 0.000000 0.000000
CALB_HYD         All              Long     0.006000 7.172000 2.152000 0.000000 0.000000 0.000000
COLUMBIA_ST      RAINGAGE-13     
COLUMBIA_ST      All              Short    0.030000 1.000000 1.000000 0.000000 0.000000 0.000000
COLUMBIA_ST      All              Medium   0.030000 2.000000 3.200000 0.000000 0.000000 0.000000
COLUMBIA_ST      All              Long     0.010000 3.000000 7.500000 0.000000 0.000000 0.000000
FRANKLIN_AVE     RAINGAGE-13     
FRANKLIN_AVE     All              Short    0.020000 1.000000 1.000000 0.000000 0.000000 0.000000
FRANKLIN_AVE     All              Medium   0.040000 2.000000 3.200000 0.000000 0.000000 0.000000
FRANKLIN_AVE     All              Long     0.020000 3.000000 7.500000 0.000000 0.000000 0.000000
HUFFMAN_ST       RAINGAGE-13     
HUFFMAN_ST       All              Short    0.020000 1.000000 1.000000 0.000000 0.000000 0.000000
HUFFMAN_ST       All              Medium   0.010000 2.000000 3.200000 0.000000 0.000000 0.000000
HUFFMAN_ST       All              Long     0.010000 3.000000 5.000000 0.000000 0.000000 0.000000
HYDRO1           RAINGAGE-13     
HYDRO1           All              Short    0.013848 1.318333 2.883270 0.000000 0.000000 0.000000
HYDRO1           All              Medium   0.012916 2.596667 2.253851 0.000000 0.000000 0.000000
HYDRO1           All              Long     0.010095 12.322222 1.386632 0.000000 0.000000 0.000000
JULIAN_ST        RAINGAGE-13     
JULIAN_ST        All              Short    0.020000 1.000000 1.000000 0.000000 0.000000 0.000000
JULIAN_ST        All              Medium   0.100000 2.000000 3.200000 0.000000 0.000000 0.000000
JULIAN_ST        All              Long     0.030000 3.000000 5.000000 0.000000 0.000000 0.000000
NORTH_AVE        RAINGAGE-13     
NORTH_AVE        All              Short    0.020000 1.000000 1.000000 0.000000 0.000000 0.000000
NORTH_AVE        All              Medium   0.010000 2.000000 3.200000 0.000000 0.000000 0.000000
NORTH_AVE        All              Long     0.010000 3.000000 7.500000 0.000000 0.000000 0.000000
RDII_HYD         RAINGAGE-13     
RDII_HYD         All              Short    0.010000 0.850000 1.446000 0.000000 0.000000 0.000000
RDII_HYD         All              Medium   0.007000 3.392000 3.112000 0.000000 0.000000 0.000000
RDII_HYD         All              Long     0.005000 10.689000 1.460000 0.000000 0.000000 0.000000
RDII_HYD_HI      RAINGAGE-13     
RDII_HYD_HI      All              Short    0.050000 1.000000 1.000000 0.000000 0.000000 0.000000
RDII_HYD_HI      All              Medium   0.050000 2.000000 4.000000 0.000000 0.000000 0.000000
RDII_HYD_HI      All              Long     0.050000 3.000000 4.000000 0.000000 0.000000 0.000000


[CURVES]
;;Name           Type       X-Value    Y-Value   
;;-------------- ---------- ---------- ----------
Control1         Control    0          1         
Control1                    1          1         
;
Divert1          Diversion  0          0         
Divert1                     1          1         
;
1114             PUMP1      0.000000   43.564850 
1114                        35.314670  12633.806582
1114                        70.629340  30931.043700
1114                        105.944010 67089.869434
1114                        141.258680 102377.398162
1114                        176.573351 128080.659828
;
FM_PUMPS         PUMP3      10.000000  3.500390  
FM_PUMPS                    20.000001  3.300367  
FM_PUMPS                    30.000001  2.900323  
FM_PUMPS                    40.000001  2.372686  
FM_PUMPS                    50.000002  1.634542  
FM_PUMPS                    60.000002  0.625899  
FM_PUMPS                    65.000002  0.000000  
;
HIGH_FLOW        PUMP3      10.000000  17.501949 
HIGH_FLOW                   20.000001  16.501837 
HIGH_FLOW                   30.000001  14.501615 
HIGH_FLOW                   40.000001  11.863431 
HIGH_FLOW                   50.000002  8.172712  
HIGH_FLOW                   60.000002  3.129493  