[TITLE]
;;Project Title/Notes
Scenario Run :  LID_USAGE

[OPTIONS]
;;Option             Value
FLOW_UNITS           CFS
INFILTRATION         GREEN_AMPT
FLOW_ROUTING         DYNWAVE
LINK_OFFSETS         DEPTH
MIN_SLOPE            0
ALLOW_PONDING        NO
SKIP_STEADY_STATE    NO

IGNORE_QUALITY       YES
START_DATE           01/01/1997
START_TIME           00:00:00
REPORT_START_DATE    01/01/1997
REPORT_START_TIME    00:00:00
END_DATE             01/02/1997
END_TIME             02:00:00
SWEEP_START          01/01
SWEEP_END            12/31
DRY_DAYS             5.000000
REPORT_STEP          00:05:00
WET_STEP             00:01:00
DRY_STEP             00:01:00
ROUTING_STEP         0:01:00 
RULE_STEP            00:00:00

INERTIAL_DAMPING     NONE
NORMAL_FLOW_LIMITED  BOTH
FORCE_MAIN_EQUATION  H-W
VARIABLE_STEP        0.75
LENGTHENING_STEP     10
MIN_SURFAREA         12.566
MAX_TRIALS           8
HEAD_TOLERANCE       0.000100
SYS_FLOW_TOL         5
LAT_FLOW_TOL         5
MINIMUM_STEP         0
THREADS              1

[FILES]
;;Interfacing Files
SAVE HOTSTART "C:\Users\dickinre\Desktop\greenville.rff.hsf"
SAVE RAINFALL "C:\Users\dickinre\Desktop\greenville.rff"
SAVE RUNOFF "C:\Users\dickinre\Desktop\runoff.rof"

[EVAPORATION]
;;Data Source    Parameters
;;-------------- ----------------
CONSTANT         0.100000
DRY_ONLY         NO

[TEMPERATURE]
;;Data Element     Values     
TIMESERIES         MyTemperature
WINDSPEED MONTHLY  0.0 0.0 0.0 0.0 0.0 0.0 0.0 0.0 0.0 0.0 0.0 0.0
SNOWMELT           34 0.5 0.6 0.0 50.0 0.0
ADC IMPERVIOUS     1.0 1.0 1.0 1.0 1.0 1.0 1.0 1.0 1.0 1.0
ADC PERVIOUS       1.0 1.0 1.0 1.0 1.0 1.0 1.0 1.0 1.0 1.0

[RAINGAGES]
;;Name           Format    Interval SCF      Source    
;;-------------- --------- ------ ------ ----------
;  July rainfall event
RAINGAGE-13      VOLUME    0:15     1.000000 TIMESERIES 50-YEAR         
RAINGAGE-14      VOLUME    0.016667 1.000000 TIMESERIES 100-YEAR        

[SUBCATCHMENTS]
;;Name           Rain Gage        Outlet           Area     %Imperv  Width    %Slope   CurbLen  SnowPack        
;;-------------- ---------------- ---------------- -------- -------- -------- -------- -------- ----------------
C10              RAINGAGE-14      117              9.657878 90.000000 1066.435908 1.400000 0.000000 BORLÄNGE        
C13              RAINGAGE-14      JCT-10           1.803174 89.000000 460.800277 0.800000 0.000000 BORLÄNGE        
C15              RAINGAGE-14      232              9.876764 62.000000 1078.453020 2.200000 0.000000 BORLÄNGE        
C20              RAINGAGE-13      281              7.607752 44.000000 946.503193 2.700000 0.000000 BORLÄNGE        
C25              RAINGAGE-13      1114             14.867473 34.000000 1323.160338 2.300000 0.000000 BORLÄNGE        
C30              RAINGAGE-13      384              6.717236 26.000000 889.383799 3.300000 0.000000 BORLÄNGE        
C33              RAINGAGE-13      1115             7.127885 35.000000 916.166175 2.200000 0.000000 BORLÄNGE        
C35              RAINGAGE-13      421              13.463804 40.000000 1259.150941 1.100000 0.000000 BORLÄNGE        
C45              RAINGAGE-13      1001             10.690976 35.000000 1122.025084 1.100000 0.000000 BORLÄNGE        
C50              RAINGAGE-13      387              19.088115 46.000000 1499.254709 1.500000 0.000000 BORLÄNGE        
C55              RAINGAGE-13      183              6.454598 48.000000 871.823366 3.000000 0.000000 BORLÄNGE        
C57              RAINGAGE-13      267              12.810948 48.000000 1228.243644 3.000000 0.000000 BORLÄNGE        
C60              RAINGAGE-13      323              15.307516 54.000000 1342.598830 1.600000 0.000000 BORLÄNGE        
C65              RAINGAGE-13      257              6.246600 61.000000 857.661142 4.200000 0.000000 BORLÄNGE        
D10              RAINGAGE-13      136              9.788079 79.000000 1073.600306 1.200000 0.000000 BORLÄNGE        
D15              RAINGAGE-13      31               5.991881 56.000000 839.992650 1.400000 0.000000 BORLÄNGE        
D20              RAINGAGE-13      19               6.903650 54.000000 901.640236 3.300000 0.000000 BORLÄNGE        
D21              RAINGAGE-13      7                14.957666 21.000000 1327.167753 3.300000 0.000000 BORLÄNGE        
D22              RAINGAGE-13      17               13.951151 25.000000 1281.736974 1.300000 0.000000 BORLÄNGE        
D25              RAINGAGE-13      JCT-184          5.690174 24.000000 818.571580 1.000000 0.000000 BORLÄNGE        
D30              RAINGAGE-13      201              14.354926 23.000000 1300.152766 0.200000 0.000000 BORLÄNGE        
D32              RAINGAGE-13      956              3.313461 52.000000 624.647253 0.400000 0.000000 BORLÄNGE        
D35              RAINGAGE-13      348              8.142201 24.000000 979.185154 1.100000 0.000000 BORLÄNGE        
D40              RAINGAGE-13      269              10.204143 27.000000 1096.180734 1.500000 0.000000 BORLÄNGE        
D45              RAINGAGE-13      95               15.999290 34.000000 1372.600827 1.500000 0.000000 BORLÄNGE        
D50              RAINGAGE-13      187              8.393006 39.000000 994.151685 1.800000 0.000000 BORLÄNGE        
D55              RAINGAGE-13      46               7.017997 26.000000 909.076600 0.300000 0.000000 BORLÄNGE        
D60              RAINGAGE-13      200              12.647283 25.000000 1220.372776 1.200000 0.000000 BORLÄNGE        
D65              RAINGAGE-13      209              8.644601 24.000000 1008.942412 2.500000 0.000000 BORLÄNGE        
D70              RAINGAGE-13      105              7.284719 44.000000 926.190423 1.600000 0.000000 BORLÄNGE        

[SUBAREAS]
;;Subcatchment   N-Imperv   N-Perv     S-Imperv   S-Perv     PctZero    RouteTo    PctRouted 
;;-------------- ---------- ---------- ---------- ---------- ---------- ---------- ----------
C10              0.020000   0.300000   0.100000   0.250000   25.000000  OUTLET    
C13              0.020000   0.300000   0.100000   0.250000   25.000000  OUTLET    
C15              0.020000   0.270000   0.100000   0.230000   25.000000  OUTLET    
C20              0.020000   0.230000   0.100000   0.210000   25.000000  OUTLET    
C25              0.020000   0.270000   0.100000   0.230000   25.000000  OUTLET    
C30              0.020000   0.290000   0.100000   0.250000   25.000000  OUTLET    
C33              0.020000   0.150000   0.100000   0.170000   25.000000  OUTLET    
C35              0.020000   0.240000   0.100000   0.220000   25.000000  OUTLET    
C45              0.020000   0.260000   0.100000   0.230000   25.000000  OUTLET    
C50              0.020000   0.260000   0.100000   0.230000   25.000000  OUTLET    
C55              0.020000   0.280000   0.100000   0.240000   25.000000  OUTLET    
C57              0.020000   0.280000   0.100000   0.240000   25.000000  OUTLET    
C60              0.020000   0.230000   0.100000   0.210000   25.000000  OUTLET    
C65              0.020000   0.270000   0.100000   0.230000   25.000000  OUTLET    
D10              0.020000   0.260000   0.100000   0.230000   25.000000  OUTLET    
D15              0.020000   0.290000   0.100000   0.250000   25.000000  OUTLET    
D20              0.020000   0.270000   0.100000   0.230000   25.000000  OUTLET    
D21              0.020000   0.260000   0.100000   0.230000   25.000000  OUTLET    
D22              0.020000   0.250000   0.100000   0.230000   25.000000  OUTLET    
D25              0.020000   0.250000   0.100000   0.220000   25.000000  OUTLET    
D30              0.020000   0.280000   0.100000   0.240000   25.000000  OUTLET    
D32              0.020000   0.280000   0.100000   0.240000   25.000000  OUTLET    
D35              0.020000   0.270000   0.100000   0.240000   25.000000  OUTLET    
D40              0.020000   0.250000   0.100000   0.220000   25.000000  OUTLET    
D45              0.020000   0.240000   0.100000   0.220000   25.000000  OUTLET    
D50              0.020000   0.240000   0.100000   0.220000   25.000000  OUTLET    
D55              0.020000   0.240000   0.100000   0.220000   25.000000  OUTLET    
D60              0.020000   0.250000   0.100000   0.220000   25.000000  OUTLET    
D65              0.020000   0.240000   0.100000   0.220000   25.000000  OUTLET    
D70              0.020000   0.250000   0.100000   0.230000   25.000000  OUTLET    

[INFILTRATION]
;;Subcatchment   Param1     Param2     Param3     Param4     Param5    
;;-------------- ---------- ---------- ---------- ---------- ----------
C10              5.000000   1.000000   0.250000   7          0         
C13              5.000000   1.000000   0.250000   7          0         
C15              5.000000   1.000000   0.250000   7          0         
C20              5.000000   1.000000   0.250000   7          0         
C25              5.000000   1.000000   0.250000   7          0         
C30              5.000000   1.000000   0.250000   7          0         
C33              5.000000   1.000000   0.250000   7          0         
C35              5.000000   1.000000   0.250000   7          0         
C45              5.000000   1.000000   0.250000   7          0         
C50              5.000000   1.000000   0.250000   7          0         
C55              5.000000   1.000000   0.250000   7          0         
C57              5.000000   1.000000   0.250000   7          0         
C60              5.000000   1.000000   0.250000   7          0         
C65              5.000000   1.000000   0.250000   7          0         
D10              5.000000   1.000000   0.250000   7          0         
D15              5.000000   1.000000   0.250000   7          0         
D20              5.000000   1.000000   0.250000   7          0         
D21              5.000000   1.000000   0.250000   7          0         
D22              5.000000   1.000000   0.250000   7          0         
D25              5.000000   1.000000   0.250000   7          0         
D30              5.000000   1.000000   0.250000   7          0         
D32              5.000000   1.000000   0.250000   7          0         
D35              5.000000   1.000000   0.250000   7          0         
D40              5.000000   1.000000   0.250000   7          0         
D45              5.000000   1.000000   0.250000   7          0         
D50              5.000000   1.000000   0.250000   7          0         
D55              5.000000   1.000000   0.250000   7          0         
D60              5.000000   1.000000   0.250000   7          0         
D65              5.000000   1.000000   0.250000   7          0         
D70              5.000000   1.000000   0.250000   7          0         

[LID_CONTROLS]
;;Name           Type/Layer Parameters
;;-------------- ---------- ----------
TRENCH           IT
TRENCH           SURFACE    3.937008   0.100000   0.013000   1.000000   0.000000  
TRENCH           STORAGE    39.370079  0.330000   30.000000  0.000000  
TRENCH           DRAIN      1.000000   1.000000   1.000000   1.000000   0          0                    

BIOCELL          BC
BIOCELL          SURFACE    3.937008   0.100000   0.013000   1.000000   0.000000  
BIOCELL          SOIL       39.370079  0.330000   0.250000   0.150000   20.000000  1.000000   5.000000  
BIOCELL          STORAGE    39.370079  0.330000   30.000000  0.000000  
BIOCELL          DRAIN      1.000000   1.000000   6.000000   1.000000   0          0                    

RAINB            RB
RAINB            STORAGE    48.000000  0.250000   30.000000  0.000000  
RAINB            DRAIN      1.000000   1.000000   6.000000   1.000000   0          0                    

VEGSWALE         VS
VEGSWALE         SURFACE    3.937008   0.330000   0.013000   1.000000   1.000000  

GREENROOF        GR
GREENROOF        SURFACE    39.370079  0.100000   0.013000   1.000000   0.000000  
GREENROOF        SOIL       19.685039  0.400000   0.300000   0.120000   30.000000  5.000000   5.000000  
GREENROOF        DRAINMAT   5.000000   0.500000   0.020000  

PAVEMENT         PP
PAVEMENT         SURFACE    8.000000   0.330000   0.013000   1.000000   1.000000  
PAVEMENT         PAVEMENT   0.393701   0.150000   0.150000   80.000000  0.000000   0          0         
PAVEMENT         STORAGE    39.370079  0.330000   70.000000  0.000000  
PAVEMENT         DRAIN      0.000000   1.000000   0.001550   1.000000   0          0                    

RG               RG
RG               SURFACE    3.000000   0.100000   0.100000   1.000000   5.000000  
RG               SOIL       3.000000   0.500000   0.200000   0.100000   0.500000   10.000000  3.500000  
RG               STORAGE    0.000000   0.750000   1.000000   0.000000  

[LID_USAGE]
;;Subcatchment   LID Process      Number  Area       Width      InitSat    FromImp    ToPerv     RptFile                  DrainTo          FromPerv  
;;-------------- ---------------- ------- ---------- ---------- ---------- ---------- ---------- ------------------------ ---------------- ----------
C10              TRENCH           1       21034.858680 55.000000  0.000000   5.000000   1          *                        *                0               
C10              BIOCELL          1       21034.858680 55.000000  0.000000   5.000000   1          *                        *                0               
C10              RAINB            1       21034.858680 55.000000  0.000000   5.000000   1          *                        *                0               
C10              VEGSWALE         1       21034.858680 55.000000  0.000000   5.000000   1          *                        *                0               
C10              GREENROOF        1       21034.858680 55.000000  0.000000   5.000000   1          *                        *                0               
C10              PAVEMENT         1       21034.858680 55.000000  0.000000   5.000000   1          *                        *                0               
C10              RG               1       21034.858680 55.000000  0.000000   5.000000   1          *                        *                0               
C13              TRENCH           1       3927.313242 55.000000  0.000000   5.000000   1          *                        *                0               
C13              BIOCELL          1       3927.313242 55.000000  0.000000   5.000000   1          *                        *                0               
C13              RAINB            1       3927.313242 55.000000  0.000000   5.000000   1          *                        *                0               
C13              VEGSWALE         1       3927.313242 55.000000  0.000000   5.000000   1          *                        *                0               
C13              GREENROOF        1       3927.313242 55.000000  0.000000   5.000000   1          *                        *                0               
C13              PAVEMENT         1       3927.313242 55.000000  0.000000   5.000000   1          *                        *                0               
C13              RG               1       3927.313242 55.000000  0.000000   5.000000   1          *                        *                0               
C15              TRENCH           1       21511.591461 55.000000  0.000000   5.000000   1          *                        *                0               
C15              BIOCELL          1       21511.591461 55.000000  0.000000   5.000000   1          *                        *                0               
C15              RAINB            1       21511.591461 55.000000  0.000000   5.000000   1          *                        *                0               
C15              VEGSWALE         1       21511.591461 55.000000  0.000000   5.000000   1          *                        *                0               
C15              GREENROOF        1       21511.591461 55.000000  0.000000   5.000000   1          *                        *                0               
C15              PAVEMENT         1       21511.591461 55.000000  0.000000   5.000000   1          *                        *                0               
C15              RG               1       21511.591461 55.000000  0.000000   5.000000   1          *                        *                0               
C20              TRENCH           1       16569.684773 55.000000  0.000000   5.000000   1          *                        *                0               
C20              BIOCELL          1       16569.684773 55.000000  0.000000   5.000000   1          *                        *                0               
C20              RAINB            1       16569.684773 55.000000  0.000000   5.000000   1          *                        *                0               
C20              VEGSWALE         1       16569.684773 55.000000  0.000000   5.000000   1          *                        *                0               
C20              GREENROOF        1       16569.684773 55.000000  0.000000   5.000000   1          *                        *                0               
C20              PAVEMENT         1       16569.684773 55.000000  0.000000   5.000000   1          *                        *                0               
C20              RG               1       16569.684773 55.000000  0.000000   5.000000   1          *                        *                0               
C25              TRENCH           1       32381.355732 55.000000  0.000000   5.000000   1          *                        *                0               
C25              BIOCELL          1       32381.355732 55.000000  0.000000   5.000000   1          *                        *                0               
C25              RAINB            1       32381.355732 55.000000  0.000000   5.000000   1          *                        *                0               
C25              VEGSWALE         1       32381.355732 55.000000  0.000000   5.000000   1          *                        *                0               
C25              GREENROOF        1       32381.355732 55.000000  0.000000   5.000000   1          *                        *                0               
C25              PAVEMENT         1       32381.355732 55.000000  0.000000   5.000000   1          *                        *                0               
C25              RG               1       32381.355732 55.000000  0.000000   5.000000   1          *                        *                0               
C30              TRENCH           1       14630.140842 55.000000  0.000000   5.000000   1          *                        *                0               
C30              BIOCELL          1       14630.140842 55.000000  0.000000   5.000000   1          *                        *                0               
C30              RAINB            1       14630.140842 55.000000  0.000000   5.000000   1          *                        *                0               
C30              VEGSWALE         1       14630.140842 55.000000  0.000000   5.000000   1          *                        *                0               
C30              GREENROOF        1       14630.140842 55.000000  0.000000   5.000000   1          *                        *                0               
C30              PAVEMENT         1       14630.140842 55.000000  0.000000   5.000000   1          *                        *                0               
C30              RG               1       14630.140842 55.000000  0.000000   5.000000   1          *                        *                0               
C33              TRENCH           1       15524.534473 55.000000  0.000000   5.000000   1          *                        *                0               
C33              BIOCELL          1       15524.534473 55.000000  0.000000   5.000000   1          *                        *                0               
C33              RAINB            1       15524.534473 55.000000  0.000000   5.000000   1          *                        *                0               
C33              VEGSWALE         1       15524.534473 55.000000  0.000000   5.000000   1          *                        *                0               
C33              GREENROOF        1       15524.534473 55.000000  0.000000   5.000000   1          *                        *                0               
C33              RG               1       15524.534473 55.000000  0.000000   5.000000   1          *                        *                0               
C35              PAVEMENT         1       29324.165903 55.000000  0.000000   5.000000   1          *                        *                0               
C35              TRENCH           1       29324.165903 55.000000  0.000000   5.000000   1          *                        *                0               
C35              BIOCELL          1       29324.165903 55.000000  0.000000   5.000000   1          *                        *                0               
C35              RAINB            1       29324.165903 55.000000  0.000000   5.000000   1          *                        *                0               
C35              VEGSWALE         1       29324.165903 55.000000  0.000000   5.000000   1          *                        *                0               
C35              RG               1       29324.165903 55.000000  0.000000   5.000000   1          *                        *                0               
C45              GREENROOF        1       23284.944715 55.000000  0.000000   5.000000   1          *                        *                0               
C45              PAVEMENT         1       23284.944715 55.000000  0.000000   5.000000   1          *                        *                0               
C45              TRENCH           1       23284.944715 55.000000  0.000000   5.000000   1          *                        *                0               
C45              BIOCELL          1       23284.944715 55.000000  0.000000   5.000000   1          *                        *                0               
C45              RAINB            1       23284.944715 55.000000  0.000000   5.000000   1          *                        *                0               
C45              RG               1       23284.944715 55.000000  0.000000   5.000000   1          *                        *                0               
C50              VEGSWALE         1       41573.914888 55.000000  0.000000   5.000000   1          *                        *                0               
C50              GREENROOF        1       41573.914888 55.000000  0.000000   5.000000   1          *                        *                0               
C50              PAVEMENT         1       41573.914888 55.000000  0.000000   5.000000   1          *                        *                0               
C50              TRENCH           1       41573.914888 55.000000  0.000000   5.000000   1          *                        *                0               
C50              BIOCELL          1       41573.914888 55.000000  0.000000   5.000000   1          *                        *                0               
C50              RG               1       41573.914888 55.000000  0.000000   5.000000   1          *                        *                0               
C55              RAINB            1       14058.114890 55.000000  0.000000   5.000000   1          *                        *                0               
C55              VEGSWALE         1       14058.114890 55.000000  0.000000   5.000000   1          *                        *                0               
C55              GREENROOF        1       14058.114890 55.000000  0.000000   5.000000   1          *                        *                0               
C55              PAVEMENT         1       14058.114890 55.000000  0.000000   5.000000   1          *                        *                0               
C55              TRENCH           1       14058.114890 55.000000  0.000000   5.000000   1          *                        *                0               
C55              RG               1       14058.114890 55.000000  0.000000   5.000000   1          *                        *                0               
C57              BIOCELL          1       27902.243860 55.000000  0.000000   5.000000   1          *                        *                0               
C57              RAINB            1       27902.243860 55.000000  0.000000   5.000000   1          *                        *                0               
C57              VEGSWALE         1       27902.243860 55.000000  0.000000   5.000000   1          *                        *                0               
C57              GREENROOF        1       27902.243860 55.000000  0.000000   5.000000   1          *                        *                0               
C57              PAVEMENT         1       27902.243860 55.000000  0.000000   5.000000   1          *                        *                0               
C57              RG               1       27902.243860 55.000000  0.000000   5.000000   1          *                        *                0               
C60              TRENCH           1       33339.770654 55.000000  0.000000   5.000000   1          *                        *                0               
C60              BIOCELL          1       33339.770654 55.000000  0.000000   5.000000   1          *                        *                0               
C60              RAINB            1       33339.770654 55.000000  0.000000   5.000000   1          *                        *                0               
C60              VEGSWALE         1       33339.770654 55.000000  0.000000   5.000000   1          *                        *                0               
C60              GREENROOF        1       33339.770654 55.000000  0.000000   5.000000   1          *                        *                0               
C60              RG               1       33339.770654 55.000000  0.000000   5.000000   1          *                        *                0               
C65              PAVEMENT         1       13605.094027 55.000000  0.000000   5.000000   1          *                        *                0               
C65              TRENCH           1       13605.094027 55.000000  0.000000   5.000000   1          *                        *                0               
C65              BIOCELL          1       13605.094027 55.000000  0.000000   5.000000   1          *                        *                0               
C65              RAINB            1       13605.094027 55.000000  0.000000   5.000000   1          *                        *                0               
C65              VEGSWALE         1       13605.094027 55.000000  0.000000   5.000000   1          *                        *                0               
C65              RG               1       13605.094027 55.000000  0.000000   5.000000   1          *                        *                0               
D10              GREENROOF        1       21318.435618 55.000000  0.000000   5.000000   1          *                        *                0               
D10              PAVEMENT         1       21318.435618 55.000000  0.000000   5.000000   1          *                        *                0               
D10              TRENCH           1       21318.435618 55.000000  0.000000   5.000000   1          *                        *                0               
D10              BIOCELL          1       21318.435618 55.000000  0.000000   5.000000   1          *                        *                0               
D10              RAINB            1       21318.435618 55.000000  0.000000   5.000000   1          *                        *                0               
D10              RG               1       21318.435618 55.000000  0.000000   5.000000   1          *                        *                0               
D15              VEGSWALE         1       13050.316707 55.000000  0.000000   5.000000   1          *                        *                0               
D15              GREENROOF        1       13050.316707 55.000000  0.000000   5.000000   1          *                        *                0               
D15              PAVEMENT         1       13050.316707 55.000000  0.000000   5.000000   1          *                        *                0               
D15              TRENCH           1       13050.316707 55.000000  0.000000   5.000000   1          *                        *                0               
D15              BIOCELL          1       13050.316707 55.000000  0.000000   5.000000   1          *                        *                0               
D15              RG               1       13050.316707 55.000000  0.000000   5.000000   1          *                        *                0               
D20              RAINB            1       15036.149913 55.000000  0.000000   5.000000   1          *                        *                0               
D20              VEGSWALE         1       15036.149913 55.000000  0.000000   5.000000   1          *                        *                0               
D20              GREENROOF        1       15036.149913 55.000000  0.000000   5.000000   1          *                        *                0               
D20              PAVEMENT         1       15036.149913 55.000000  0.000000   5.000000   1          *                        *                0               
D20              TRENCH           1       15036.149913 55.000000  0.000000   5.000000   1          *                        *                0               