[TITLE]
;;Project Title/Notes
     EXTRAN USER''S MANUAL EXAMPLE PROBLEM 25
     THREE CONDUITS WITH ADVERSE SLOPE

[OPTIONS]
;;Option             Value
FLOW_UNITS           CFS
INFILTRATION         HORTON
FLOW_ROUTING         DYNWAVE
LINK_OFFSETS         DEPTH
MIN_SLOPE            0
ALLOW_PONDING        NO
SKIP_STEADY_STATE    NO

START_DATE           01/01/1988
START_TIME           00:00:00
REPORT_START_DATE    01/01/1988
REPORT_START_TIME    00:00:00
END_DATE             01/01/1988
END_TIME             02:53:00
SWEEP_START          1/1
SWEEP_END            12/31
DRY_DAYS             0
REPORT_STEP          00:01:40
WET_STEP             00:15:00
DRY_STEP             01:00:00
ROUTING_STEP         0:00:10 

INERTIAL_DAMPING     PARTIAL
NORMAL_FLOW_LIMITED  BOTH
FORCE_MAIN_EQUATION  H-W
VARIABLE_STEP        0.75
LENGTHENING_STEP     10.0
MIN_SURFAREA         0
MAX_TRIALS           0
HEAD_TOLERANCE       0
SYS_FLOW_TOL         5
LAT_FLOW_TOL         5
MINIMUM_STEP         0.5
THREADS              1

[EVAPORATION]
;;Data Source    Parameters
;;-------------- ----------------
CONSTANT         0.0
DRY_ONLY         NO

[JUNCTIONS]
;;Name           Elevation  MaxDepth   InitDepth  SurDepth   Aponded   
;;-------------- ---------- ---------- ---------- ---------- ----------
; *    JUNCTION DATA *    JUN   GRELEV   Z  QINST  Y
1                190.00     10.00      .10        0          0         
2                190.50     9.50       .10        0          0         
3                191.00     9.00       .10        0          0         

[OUTFALLS]
;;Name           Elevation  Type       Stage Data       Gated    Route To        
;;-------------- ---------- ---------- ---------------- -------- ----------------
4                191.5      FREE                        NO                       

[CONDUITS]
;;Name           From Node        To Node          Length     Roughness  InOffset   OutOffset  InitFlow   MaxFlow   
;;-------------- ---------------- ---------------- ---------- ---------- ---------- ---------- ---------- ----------
; *   CONDUIT DATA *   NCOND NJ1  NJ2   QO  NKLASS AFULL DEEP WIDE LEN   ZP1  ZP2  ROUGH STHETA SPHI
1                1                2                1000.0     0.03       0.0        0.0        0.0        0         
2                2                3                1000.0     0.04       0.0        0.0        0.0        0         
3                3                4                1000.0     0.04       0.0        0.0        0.0        0         

[XSECTIONS]
;;Link           Shape        Geom1            Geom2      Geom3      Geom4      Barrels    Culvert   
;;-------------- ------------ ---------------- ---------- ---------- ---------- ---------- ----------
1                CIRCULAR     6.0              0.0        0.0        0.0        1                    
2                CIRCULAR     6.0              0.0        0.0        0.0        1                    
3                CIRCULAR     6.0              0.0        0.0        0.0        1                    

[INFLOWS]
;;Node           Constituent      Time Series      Type     Mfactor  Sfactor  Baseline Pattern
;;-------------- ---------------- ---------------- -------- -------- -------- -------- --------
1                FLOW             INFLOW@1         FLOW     1.0      1.0              

[TIMESERIES]
;;Name           Date       Time       Value     
;;-------------- ---------- ---------- ----------
;Name             Date       Time       Value
INFLOW@1         01/01/1988 00:00      0.00000   
INFLOW@1                    00:15      20.00000  
INFLOW@1                    00:30      20.00000  
INFLOW@1                    01:00      20.00000  
INFLOW@1                    02:00      0.00000   
INFLOW@1         01/01/1988 04:00      0.00000   

[REPORT]
;;Reporting Options
INPUT      NO
CONTROLS   NO
SUBCATCHMENTS ALL
NODES ALL
LINKS ALL

[TAGS]

[MAP]
DIMENSIONS 850.000 995.000 4150.000 1105.000
Units      None

[COORDINATES]
;;Node           X-Coord            Y-Coord           
;;-------------- ------------------ ------------------
1                1000.000           1000.000          
2                2000.000           1000.000          
3                3000.000           1000.000          
4                4000.000           1100.000          

[VERTICES]
;;Link           X-Coord            Y-Coord           
;;-------------- ------------------ ------------------

