[TITLE]
;;Project Title/Notes
EXTRAN USER''S MANUAL EXAMPLE 1
baseline extran model

[OPTIONS]
;;Option             Value
FLOW_UNITS           CFS
INFILTRATION         HORTON
FLOW_ROUTING         DYNWAVE
LINK_OFFSETS         DEPTH
MIN_SLOPE            0
ALLOW_PONDING        YES
SKIP_STEADY_STATE    NO

START_DATE           01/01/1988
START_TIME           00:00:00
REPORT_START_DATE    01/01/1988
REPORT_START_TIME    00:00:00
END_DATE             02/15/1988
END_TIME             00:00:00
SWEEP_START          01/01
SWEEP_END            12/31
DRY_DAYS             0
REPORT_STEP          00:10:00
WET_STEP             00:15:00
DRY_STEP             01:00:00
ROUTING_STEP         0:10:00 

INERTIAL_DAMPING     PARTIAL
NORMAL_FLOW_LIMITED  SLOPE
FORCE_MAIN_EQUATION  H-W
VARIABLE_STEP        0.75
LENGTHENING_STEP     5
MIN_SURFAREA         12.557
MAX_TRIALS           8
HEAD_TOLERANCE       0.005
SYS_FLOW_TOL         5
LAT_FLOW_TOL         5
MINIMUM_STEP         0.5
THREADS              1

[EVAPORATION]
;;Data Source    Parameters
;;-------------- ----------------
CONSTANT         0.0
DRY_ONLY         NO

[JUNCTIONS]
;;Name           Elevation  MaxDepth   InitDepth  SurDepth   Aponded   
;;-------------- ---------- ---------- ---------- ---------- ----------
;                 Invert      Max.       Init.      Surcharge  Ponded
;Name             Elev.       Depth      Depth      Depth      Area
;------------------------------------------------------------------------
; *    JUNCTION DATA
80408            124.60     13.40      .00        .00        0         
80608            118.30     16.70      .00        .00        0         
81009            128.20     8.80       .00        .00        0         
81309            117.50     12.50      .00        .00        0         
82309            112.30     42.70      .00        .00        100       
10309            101.60     9.40       .00        .00        0         
15009            111.50     13.50      .00        .00        0         
16009            102.00     18.00      .00        .00        0         
16109            102.80     22.20      .00        .00        0         

[OUTFALLS]
;;Name           Elevation  Type       Stage Data       Gated    Route To        
;;-------------- ---------- ---------- ---------------- -------- ----------------
;                 Invert     Outfall      Stage/Table
;Name             Elev.      Type         Time Series
;----------------------------------------------------
10208            89.90      FREE                        NO                       

[CONDUITS]
;;Name           From Node        To Node          Length     Roughness  InOffset   OutOffset  InitFlow   MaxFlow   
;;-------------- ---------------- ---------------- ---------- ---------- ---------- ---------- ---------- ----------
;                 Inlet            Outlet                      Manning    Inlet      Outlet     Init.
;Name             Node             Node             Length     N          Height     Height     Flow
;------------------------------------------------------------------------------------------------------------
; *   CONDUIT DATA
8040             80408            80608            1800       0.015      0          0          0          0         
8060             80608            82309            2075       0.015      0          2.2        0          0         
8100             81009            81309            5100       0.015      0          0          0          0         
8130             81309            15009            3500       0.015      0          0          0          0         
1030             10309            10208            4500       0.016      0          0          0          0         
1570             15009            16009            5000       0.0154     0          0          0          0         
1600             16009            16109            500        0.015      0          0          0          0         
1630             16009            10309            300        0.015      0          0          0          0         
1602             82309            16109            5000       0.034      0          0          0          0         

[XSECTIONS]
;;Link           Shape        Geom1            Geom2      Geom3      Geom4      Barrels    Culvert   
;;-------------- ------------ ---------------- ---------- ---------- ---------- ---------- ----------
8040             CIRCULAR     4                0          0          0          1                    
8060             CIRCULAR     4                0          0          0          1                    
8100             CIRCULAR     4.5              0          0          0          1                    
8130             CIRCULAR     4.5              0          0          0          1                    
1030             TRIANGULAR   9                54         0          0          1                    
1570             CIRCULAR     5.5              0          0          0          1                    
1600             CIRCULAR     6                0          0          0          1                    
1630             TRIANGULAR   9                54         0          0          1                    
1602             CIRCULAR     5                0          0          0          1                    

[INFLOWS]
;;Node           Constituent      Time Series      Type     Mfactor  Sfactor  Baseline Pattern
;;-------------- ---------------- ---------------- -------- -------- -------- -------- --------
80408            FLOW             FLOW@80408       FLOW     1.0      1.0              
81009            FLOW             FLOW@81009       FLOW     1.0      1.0              
82309            FLOW             FLOW@82309       FLOW     1.0      1.0              

[TIMESERIES]
;;Name           Date       Time       Value     
;;-------------- ---------- ---------- ----------
;Name             Date       Time       Value
;-------------------------------------------------
;Name             Date       Time       Value
FLOW@82309       01/01/1988 00:00      0.00000   
FLOW@82309                  00:15      40.00000  
FLOW@82309       01/21/1988 23:00      40.00000  
FLOW@82309       01/22/1988 00:00      0.00000   
FLOW@82309       01/23/1988 00:00      0.00000   
;
FLOW@80408       01/01/1988 00:00      0.00000   
FLOW@80408                  00:15      45.00000  
FLOW@80408       01/21/1988 23:00      45.00000  
FLOW@80408       01/22/1988 00:00      0.00000   
FLOW@80408       01/23/1988 00:00      0.00000   
;
FLOW@81009       01/01/1988 00:00      0.00000   
FLOW@81009                  00:15      50.00000  
FLOW@81009       01/21/1988 23:00      50.00000  
FLOW@81009       01/22/1988 00:00      0.00000   
FLOW@81009       01/23/1988 00:00      0.00000   

[REPORT]
;;Reporting Options
INPUT      NO
CONTROLS   NO
SUBCATCHMENTS ALL
NODES ALL
LINKS ALL

[TAGS]

[MAP]
DIMENSIONS 19.430 388.240 228.140 475.040
Units      None

[COORDINATES]
;;Node           X-Coord            Y-Coord           
;;-------------- ------------------ ------------------
80408            28.910             470.880           
80608            66.020             471.090           
81009            217.730            424.450           
81309            158.700            424.450           
82309            66.020             427.190           
10309            148.700            392.190           
15009            108.700            424.450           
16009            108.700            392.190           
16109            66.020             392.190           
10208            218.650            392.190           

[VERTICES]
;;Link           X-Coord            Y-Coord           
;;-------------- ------------------ ------------------

