[TITLE]
;;Project Title/Notes
EXTRAN EXAMPLE # 60 - SYSTEM WITH TWO LEVELS OF SURCHARGE
SCHEME 1 AS IN KASSEM THESIS WITH TRAPEZOIDAL INFLOW BY A. Y.

[OPTIONS]
;;Option             Value
FLOW_UNITS           CFS
INFILTRATION         HORTON
FLOW_ROUTING         DYNWAVE
LINK_OFFSETS         DEPTH
MIN_SLOPE            0
ALLOW_PONDING        NO
SKIP_STEADY_STATE    NO

START_DATE           01/01/1988
START_TIME           00:00:00
REPORT_START_DATE    01/01/1988
REPORT_START_TIME    00:00:00
END_DATE             01/01/1988
END_TIME             04:00:00
SWEEP_START          1/1
SWEEP_END            12/31
DRY_DAYS             0
REPORT_STEP          00:00:10
WET_STEP             00:15:00
DRY_STEP             01:00:00
ROUTING_STEP         0:00:01 

INERTIAL_DAMPING     PARTIAL
NORMAL_FLOW_LIMITED  SLOPE
FORCE_MAIN_EQUATION  H-W
VARIABLE_STEP        0.75
LENGTHENING_STEP     5
MIN_SURFAREA         0
MAX_TRIALS           0
HEAD_TOLERANCE       0
SYS_FLOW_TOL         5
LAT_FLOW_TOL         5
MINIMUM_STEP         0.5
THREADS              1

[EVAPORATION]
;;Data Source    Parameters
;;-------------- ----------------
CONSTANT         0.0
DRY_ONLY         NO

[JUNCTIONS]
;;Name           Elevation  MaxDepth   InitDepth  SurDepth   Aponded   
;;-------------- ---------- ---------- ---------- ---------- ----------
;                 Invert      Max.       Init.      Surcharge  Ponded
;Name             Elev.       Depth      Depth      Depth      Area
;------------------------------------------------------------------------
; *   JUNCTION  DATA
1                118.00     182.00     .00        .00        0         
2                117.50     183.00     .00        .00        0         
3                117.00     183.00     .00        .00        0         
4                116.50     184.00     .00        .00        0         
5                116.00     184.00     .00        .00        0         
6                115.50     185.00     .00        .00        0         
7                115.00     185.00     .00        .00        0         
8                114.00     86.00      .00        .00        0         
9                113.50     87.00      .00        .00        0         
10               113.00     87.00      .00        .00        0         
11               112.50     88.00      .00        .00        0         
12               112.00     88.00      .00        .00        0         

[OUTFALLS]
;;Name           Elevation  Type       Stage Data       Gated    Route To        
;;-------------- ---------- ---------- ---------------- -------- ----------------
;                 Invert     Outfall      Stage/Table
;Name             Elev.      Type         Time Series
;----------------------------------------------------
13               111.5      FREE                        NO                       

[CONDUITS]
;;Name           From Node        To Node          Length     Roughness  InOffset   OutOffset  InitFlow   MaxFlow   
;;-------------- ---------------- ---------------- ---------- ---------- ---------- ---------- ---------- ----------
;                 Inlet            Outlet                      Manning    Inlet      Outlet     Init.
;Name             Node             Node             Length     N          Height     Height     Flow
;------------------------------------------------------------------------------------------------------------
; *    CONDUIT DATA
101              1                2                500        0.013      0          0          0          0         
102              2                3                500        0.013      0          0          0          0         
103              3                4                500        0.013      0          0          0          0         
104              4                5                500        0.013      0          0          0          0         
105              5                6                500        0.013      0          0          0          0         
106              6                7                500        0.013      0          0          0          0         
107              7                8                500        0.013      0          0          0          0         
108              8                9                500        0.013      0          0          0          0         
109              9                10               500        0.013      0          0          0          0         
110              10               11               500        0.013      0          0          0          0         
111              11               12               500        0.013      0          0          0          0         
112              12               13               500        0.013      0          0          0          0         

[XSECTIONS]
;;Link           Shape        Geom1            Geom2      Geom3      Geom4      Barrels    Culvert   
;;-------------- ------------ ---------------- ---------- ---------- ---------- ---------- ----------
101              CIRCULAR     6                0          0          0          1                    
102              CIRCULAR     6                0          0          0          1                    
103              CIRCULAR     6                0          0          0          1                    
104              CIRCULAR     6                0          0          0          1                    
105              CIRCULAR     6                0          0          0          1                    
106              CIRCULAR     6                0          0          0          1                    
107              CIRCULAR     2.95             0          0          0          1                    
108              CIRCULAR     2.95             0          0          0          1                    
109              CIRCULAR     2.95             0          0          0          1                    
110              CIRCULAR     2.95             0          0          0          1                    
111              CIRCULAR     2.95             0          0          0          1                    
112              CIRCULAR     2.95             0          0          0          1                    

[INFLOWS]
;;Node           Constituent      Time Series      Type     Mfactor  Sfactor  Baseline Pattern
;;-------------- ---------------- ---------------- -------- -------- -------- -------- --------
1                FLOW             FLOW@1           FLOW     1.0      1.0              

[TIMESERIES]
;;Name           Date       Time       Value     
;;-------------- ---------- ---------- ----------
;Name             Date       Time       Value
;-------------------------------------------------
;-------------------------------------------------
FLOW@1           01/01/1988 00:00      28.00000  
FLOW@1                      00:15      28.00000  
FLOW@1                      00:55      108.00000 
FLOW@1                      01:35      108.00000 
FLOW@1                      02:55      28.00000  
FLOW@1           01/01/1988 20:00      28.00000  

[REPORT]
;;Reporting Options
INPUT      NO
CONTROLS   NO
SUBCATCHMENTS ALL
NODES ALL
LINKS ALL

[TAGS]

[MAP]
DIMENSIONS 700.000 1940.000 7300.000 3260.000
Units      None

[COORDINATES]
;;Node           X-Coord            Y-Coord           
;;-------------- ------------------ ------------------
1                1000.000           2000.000          
2                1500.000           2100.000          
3                2000.000           2200.000          
4                2500.000           2300.000          
5                3000.000           2400.000          
6                3500.000           2500.000          
7                4000.000           2600.000          
8                4500.000           2700.000          
9                5000.000           2800.000          
10               5500.000           2900.000          
11               6000.000           3000.000          
12               6500.000           3100.000          
13               7000.000           3200.000          

[VERTICES]
;;Link           X-Coord            Y-Coord           
;;-------------- ------------------ ------------------

